OPT_V10/Two_days_MYC3_SOS/powerflow_results_t19.txt
Pandapower Network Debug Info
==================================================

BUS:
       vm_pu  va_degree      p_mw    q_mvar
0   0.993084   0.139667  0.000892  0.000875
1   0.988605   0.235723  0.001320  0.001920
2   0.984338   0.336456  0.001969  0.003427
3   0.989430   0.224987  0.002303  0.003987
4   0.999887   0.000791  0.008934  0.008154
5   0.999873   0.000854  0.010008  0.009735
6   0.999862   0.000890  0.013655  0.011915
7   0.999930   0.000597  0.000000  0.000000
8   0.999930   0.000603  0.000000  0.000000
9   1.000000   0.000000 -0.039229 -0.045113
10  1.000000   0.000006  0.000000  0.000000
--------------------------------------------------

LINE:
   p_from_mw  q_from_mvar   p_to_mw  q_to_mvar         pl_mw       ql_mvar  i_from_ka   i_to_ka      i_ka  vm_from_pu  va_from_degree  vm_to_pu  va_to_degree  loading_percent
0   0.039219     0.041113 -0.039216  -0.041110  3.157807e-06  2.462194e-06   0.002187  0.002187  0.002187    1.000000        0.000006  0.999930      0.000597         0.950854
1   0.032598     0.029805 -0.032597  -0.029804  1.508875e-06  1.176495e-06   0.001700  0.001700  0.001700    0.999930        0.000597  0.999887      0.000791         0.739227
2   0.006608     0.010305 -0.006538  -0.010251  7.010371e-05  5.466101e-05   0.017671  0.017671  0.017671    0.999930        0.000603  0.993084      0.139667         7.682964
3  -0.023663    -0.021650  0.023663   0.021650  3.558205e-07  2.774391e-07   0.001235  0.001235  0.001235    0.999873        0.000854  0.999887      0.000791         0.536796
4  -0.013655    -0.011915  0.013655   0.011915  1.606641e-07  1.252724e-07   0.000698  0.000698  0.000698    0.999862        0.000890  0.999873      0.000854         0.303316
5  -0.003304    -0.005358  0.003328   0.005377  2.398733e-05  1.870332e-05   0.009191  0.009191  0.009191    0.988605        0.235723  0.993084      0.139667         3.995943
6  -0.002303    -0.003987  0.002318   0.003999  1.446064e-05  1.127520e-05   0.006717  0.006717  0.006717    0.989430        0.224987  0.993084      0.139667         2.920517
7  -0.001969    -0.003427  0.001984   0.003438  1.458508e-05  1.137223e-05   0.005796  0.005796  0.005796    0.984338        0.336456  0.988605      0.235723         2.519876
--------------------------------------------------

TRAFO:
    p_hv_mw  q_hv_mvar   p_lv_mw  q_lv_mvar    pl_mw  ql_mvar   i_hv_ka   i_lv_ka  vm_hv_pu  va_hv_degree  vm_lv_pu  va_lv_degree  loading_percent
0  0.006618   0.011305 -0.006608  -0.010305  0.00001    0.001  0.000504  0.017671   0.99993      0.000597   0.99993      0.000603         0.131006
1  0.039229   0.045113 -0.039219  -0.041113  0.00001    0.004  0.000493  0.002187   1.00000      0.000000   1.00000      0.000006         0.149459
--------------------------------------------------
